data_Cu2O
_audit_creation_date              2015-01-31
_audit_creation_method            'Materials Studio'
_symmetry_space_group_name_H-M    'PN-3M'
_symmetry_Int_Tables_number       224
_symmetry_cell_setting            cubic
loop_
_symmetry_equiv_pos_as_xyz
  x,y,z
  -x,-y,z
  -x,y,-z
  x,-y,-z
  z,x,y
  z,-x,-y
  -z,-x,y
  -z,x,-y
  y,z,x
  -y,z,-x
  y,-z,-x
  -y,-z,x
  y+1/2,x+1/2,-z+1/2
  -y+1/2,-x+1/2,-z+1/2
  y+1/2,-x+1/2,z+1/2
  -y+1/2,x+1/2,z+1/2
  x+1/2,z+1/2,-y+1/2
  -x+1/2,z+1/2,y+1/2
  -x+1/2,-z+1/2,-y+1/2
  x+1/2,-z+1/2,y+1/2
  z+1/2,y+1/2,-x+1/2
  z+1/2,-y+1/2,x+1/2
  -z+1/2,y+1/2,x+1/2
  -z+1/2,-y+1/2,-x+1/2
  -x+1/2,-y+1/2,-z+1/2
  x+1/2,y+1/2,-z+1/2
  x+1/2,-y+1/2,z+1/2
  -x+1/2,y+1/2,z+1/2
  -z+1/2,-x+1/2,-y+1/2
  -z+1/2,x+1/2,y+1/2
  z+1/2,x+1/2,-y+1/2
  z+1/2,-x+1/2,y+1/2
  -y+1/2,-z+1/2,-x+1/2
  y+1/2,-z+1/2,x+1/2
  -y+1/2,z+1/2,x+1/2
  y+1/2,z+1/2,-x+1/2
  -y,-x,z
  y,x,z
  -y,x,-z
  y,-x,-z
  -x,-z,y
  x,-z,-y
  x,z,y
  -x,z,-y
  -z,-y,x
  -z,y,-x
  z,-y,-x
  z,y,x
_cell_length_a                    4.2696
_cell_length_b                    4.2696
_cell_length_c                    4.2696
_cell_angle_alpha                 90.0000
_cell_angle_beta                  90.0000
_cell_angle_gamma                 90.0000
loop_
_atom_site_label
_atom_site_type_symbol
_atom_site_fract_x
_atom_site_fract_y
_atom_site_fract_z
_atom_site_U_iso_or_equiv
_atom_site_adp_type
_atom_site_occupancy
CU     Cu    0.25000   0.25000   0.25000   0.00000  Uiso   1.00
O      O     0.00000   0.00000   0.00000   0.00000  Uiso   1.00
loop_
_geom_bond_atom_site_label_1
_geom_bond_atom_site_label_2
_geom_bond_distance
_geom_bond_site_symmetry_2
_ccdc_geom_bond_type
CU     O       1.849   13    S
O      CU      1.849   3     S
O      CU      1.849   4     S
O      CU      1.849   2     S
