data_3D\Atomistic
_audit_creation_date              2015-01-27
_audit_creation_method            'Materials Studio'
_symmetry_space_group_name_H-M    'PBMN'
_symmetry_Int_Tables_number       53
_symmetry_cell_setting            orthorhombic
loop_
_symmetry_equiv_pos_as_xyz
  x,y,z
  x+1/2,-y+1/2,-z
  -x+1/2,-y+1/2,z
  -x,y,-z
  -x,-y,-z
  -x+1/2,y+1/2,z
  x+1/2,y+1/2,-z
  x,-y,z
_cell_length_a                    7.4141
_cell_length_b                    8.0886
_cell_length_c                    3.7458
_cell_angle_alpha                 90.0000
_cell_angle_beta                  90.0000
_cell_angle_gamma                 90.0000
loop_
_atom_site_label
_atom_site_type_symbol
_atom_site_fract_x
_atom_site_fract_y
_atom_site_fract_z
_atom_site_U_iso_or_equiv
_atom_site_adp_type
_atom_site_occupancy
H      H     0.09900   0.27500   0.06400   0.00000  Uiso   1.00
Cu     Cu    0.00000   0.00000   0.00000   0.00000  Uiso   1.00
Cl     Cl    0.23998   0.00000   0.37984   0.00000  Uiso   1.00
O      O     0.00000   0.24020   0.00000   0.00000  Uiso   1.00
loop_
_geom_bond_atom_site_label_1
_geom_bond_atom_site_label_2
_geom_bond_distance
_geom_bond_site_symmetry_2
_ccdc_geom_bond_type
H      O       0.822   .     S
O      H       0.822   4     S
