data_Fe2O3
_audit_creation_date              2015-01-27
_audit_creation_method            'Materials Studio'
_symmetry_space_group_name_H-M    'R-3C'
_symmetry_Int_Tables_number       167
_symmetry_cell_setting            trigonal
loop_
_symmetry_equiv_pos_as_xyz
  x,y,z
  -y,x-y,z
  -x+y,-x,z
  y,x,-z+1/2
  x-y,-y,-z+1/2
  -x,-x+y,-z+1/2
  -x,-y,-z
  y,-x+y,-z
  x-y,x,-z
  -y,-x,z+1/2
  -x+y,y,z+1/2
  x,x-y,z+1/2
  x+2/3,y+1/3,z+1/3
  -y+2/3,x-y+1/3,z+1/3
  -x+y+2/3,-x+1/3,z+1/3
  y+2/3,x+1/3,-z+5/6
  x-y+2/3,-y+1/3,-z+5/6
  -x+2/3,-x+y+1/3,-z+5/6
  -x+2/3,-y+1/3,-z+1/3
  y+2/3,-x+y+1/3,-z+1/3
  x-y+2/3,x+1/3,-z+1/3
  -y+2/3,-x+1/3,z+5/6
  -x+y+2/3,y+1/3,z+5/6
  x+2/3,x-y+1/3,z+5/6
  x+1/3,y+2/3,z+2/3
  -y+1/3,x-y+2/3,z+2/3
  -x+y+1/3,-x+2/3,z+2/3
  y+1/3,x+2/3,-z+1/6
  x-y+1/3,-y+2/3,-z+1/6
  -x+1/3,-x+y+2/3,-z+1/6
  -x+1/3,-y+2/3,-z+2/3
  y+1/3,-x+y+2/3,-z+2/3
  x-y+1/3,x+2/3,-z+2/3
  -y+1/3,-x+2/3,z+1/6
  -x+y+1/3,y+2/3,z+1/6
  x+1/3,x-y+2/3,z+1/6
_cell_length_a                    5.0350
_cell_length_b                    5.0350
_cell_length_c                    13.7200
_cell_angle_alpha                 90.0000
_cell_angle_beta                  90.0000
_cell_angle_gamma                 120.0000
loop_
_atom_site_label
_atom_site_type_symbol
_atom_site_fract_x
_atom_site_fract_y
_atom_site_fract_z
_atom_site_U_iso_or_equiv
_atom_site_adp_type
_atom_site_occupancy
O      O     0.30000  -0.00000   0.25000   0.00000  Uiso   1.00
FE     Fe    0.00000   0.00000   0.35500   0.00000  Uiso   1.00
loop_
_geom_bond_atom_site_label_1
_geom_bond_atom_site_label_2
_geom_bond_distance
_geom_bond_site_symmetry_2
_ccdc_geom_bond_type
O      FE      2.087   .     S
O      FE      2.087   4     S
O      FE      1.960   31_545 S
O      FE      1.960   22_554 S
FE     FE      2.881   4     S
FE     O       2.087   2     S
FE     O       2.087   3     S
FE     O       1.960   32    S
FE     O       1.960   33_445 S
FE     O       1.960   31_545 S
