data_Al2O3
_audit_creation_date              2015-01-30
_audit_creation_method            'Materials Studio'
_symmetry_space_group_name_H-M    'P1'
_symmetry_Int_Tables_number       1
_symmetry_cell_setting            triclinic
loop_
_symmetry_equiv_pos_as_xyz
  x,y,z
_cell_length_a                    4.7590
_cell_length_b                    4.7590
_cell_length_c                    12.9910
_cell_angle_alpha                 90.0000
_cell_angle_beta                  90.0000
_cell_angle_gamma                 120.0000
loop_
_atom_site_label
_atom_site_type_symbol
_atom_site_fract_x
_atom_site_fract_y
_atom_site_fract_z
_atom_site_U_iso_or_equiv
_atom_site_adp_type
_atom_site_occupancy
O1     O     0.30600   0.00000   0.25000   0.00000  Uiso   1.00
O2     O     0.97267   0.33333   0.58333   0.00000  Uiso   1.00
O3     O     0.63933   0.66667   0.91667   0.00000  Uiso   1.00
O4     O     0.00000   0.30600   0.25000   0.00000  Uiso   1.00
O5     O     0.66667   0.63933   0.58333   0.00000  Uiso   1.00
O6     O     0.33333   0.97267   0.91667   0.00000  Uiso   1.00
O7     O     0.69400   0.69400   0.25000   0.00000  Uiso   1.00
O8     O     0.36067   0.02733   0.58333   0.00000  Uiso   1.00
O9     O     0.02733   0.36067   0.91667   0.00000  Uiso   1.00
O10    O     0.69400   0.00000   0.75000   0.00000  Uiso   1.00
O11    O     0.36067   0.33333   0.08333   0.00000  Uiso   1.00
O12    O     0.02733   0.66667   0.41667   0.00000  Uiso   1.00
O13    O     0.00000   0.69400   0.75000   0.00000  Uiso   1.00
O14    O     0.66667   0.02733   0.08333   0.00000  Uiso   1.00
O15    O     0.33333   0.36067   0.41667   0.00000  Uiso   1.00
O16    O     0.30600   0.30600   0.75000   0.00000  Uiso   1.00
O17    O     0.97267   0.63933   0.08333   0.00000  Uiso   1.00
O18    O     0.63933   0.97267   0.41667   0.00000  Uiso   1.00
Al19   Al    0.00000   0.00000   0.35200   0.00000  Uiso   1.00
Cr20   Cr    0.66667   0.33333   0.68533   0.00000  Uiso   1.00
Al21   Al    0.33333   0.66667   0.01867   0.00000  Uiso   1.00
Al22   Al    0.00000   0.00000   0.14800   0.00000  Uiso   1.00
Al23   Al    0.66667   0.33333   0.48133   0.00000  Uiso   1.00
Al24   Al    0.33333   0.66667   0.81467   0.00000  Uiso   1.00
Al25   Al    0.00000   0.00000   0.64800   0.00000  Uiso   1.00
Al26   Al    0.66667   0.33333   0.98133   0.00000  Uiso   1.00
Al27   Al    0.33333   0.66667   0.31467   0.00000  Uiso   1.00
Al28   Al    0.00000   0.00000   0.85200   0.00000  Uiso   1.00
Al29   Al    0.66667   0.33333   0.18533   0.00000  Uiso   1.00
Al30   Al    0.33333   0.66667   0.51867   0.00000  Uiso   1.00
loop_
_geom_bond_atom_site_label_1
_geom_bond_atom_site_label_2
_geom_bond_distance
_geom_bond_site_symmetry_2
_ccdc_geom_bond_type
O1     Al19    1.969   .     S
O1     Al22    1.969   .     S
O1     Al27    1.856   1_545 S
O1     Al29    1.856   .     S
O2     Cr20    1.969   .     S
O2     Al23    1.969   .     S
O2     Al25    1.856   1_655 S
O2     Al30    1.856   1_655 S
O3     Al21    1.969   1_556 S
O3     Al24    1.969   .     S
O3     Al26    1.856   .     S
O3     Al28    1.856   1_665 S
O4     Al19    1.969   .     S
O4     Al22    1.969   .     S
O4     Al27    1.856   .     S
O4     Al29    1.856   1_455 S
O5     Cr20    1.969   .     S
O5     Al23    1.969   .     S
O5     Al25    1.856   1_665 S
O5     Al30    1.856   .     S
O6     Al21    1.969   1_556 S
O6     Al24    1.969   .     S
O6     Al26    1.856   1_565 S
O6     Al28    1.856   1_565 S
O7     Al19    1.969   1_665 S
O7     Al22    1.969   1_665 S
O7     Al27    1.856   .     S
O7     Al29    1.856   .     S
O8     Cr20    1.969   .     S
O8     Al23    1.969   .     S
O8     Al25    1.856   .     S
O8     Al30    1.856   1_545 S
O9     Al21    1.969   1_556 S
O9     Al24    1.969   .     S
O9     Al26    1.856   1_455 S
O9     Al28    1.856   .     S
O10    Al25    1.969   1_655 S
O10    Al28    1.969   1_655 S
O10    Cr20    1.856   .     S
O10    Al24    1.856   1_545 S
O11    Al26    1.969   1_554 S
O11    Al29    1.969   .     S
O11    Al21    1.856   .     S
O11    Al22    1.856   .     S
O12    Al27    1.969   .     S
O12    Al30    1.969   .     S
O12    Al19    1.856   1_565 S
O12    Al23    1.856   1_455 S
O13    Al25    1.969   1_565 S
O13    Al28    1.969   1_565 S
O13    Cr20    1.856   1_455 S
O13    Al24    1.856   .     S
O14    Al26    1.969   1_554 S
O14    Al29    1.969   .     S
O14    Al21    1.856   1_545 S
O14    Al22    1.856   1_655 S
O15    Al27    1.969   .     S
O15    Al30    1.969   .     S
O15    Al19    1.856   .     S
O15    Al23    1.856   .     S
O16    Al25    1.969   .     S
O16    Al28    1.969   .     S
O16    Cr20    1.856   .     S
O16    Al24    1.856   .     S
O17    Al26    1.969   1_554 S
O17    Al29    1.969   .     S
O17    Al21    1.856   1_655 S
O17    Al22    1.856   1_665 S
O18    Al27    1.969   .     S
O18    Al30    1.969   .     S
O18    Al19    1.856   1_665 S
O18    Al23    1.856   1_565 S
Al19   O7      1.969   1_445 S
Al19   O18     1.856   1_445 S
Al19   O12     1.856   1_545 S
Cr20   O13     1.856   1_655 S
Al21   O3      1.969   1_554 S
Al21   O6      1.969   1_554 S
Al21   O9      1.969   1_554 S
Al21   O14     1.856   1_565 S
Al21   O17     1.856   1_455 S
Al22   O7      1.969   1_445 S
Al22   O17     1.856   1_445 S
Al22   O14     1.856   1_455 S
Al23   O12     1.856   1_655 S
Al23   O18     1.856   1_545 S
Al24   O10     1.856   1_565 S
Al25   O10     1.969   1_455 S
Al25   O13     1.969   1_545 S
Al25   O5      1.856   1_445 S
Al25   O2      1.856   1_455 S
Al26   O11     1.969   1_556 S
Al26   O14     1.969   1_556 S
Al26   O17     1.969   1_556 S
Al26   O6      1.856   1_545 S
Al26   O9      1.856   1_655 S
Al27   O1      1.856   1_565 S
Al28   O13     1.969   1_545 S
Al28   O10     1.969   1_455 S
Al28   O3      1.856   1_445 S
Al28   O6      1.856   1_545 S
Al29   O4      1.856   1_655 S
Al30   O2      1.856   1_455 S
Al30   O8      1.856   1_565 S
