data_SiO2_quartz
_audit_creation_date              2015-02-01
_audit_creation_method            'Materials Studio'
_symmetry_space_group_name_H-M    'P3121'
_symmetry_Int_Tables_number       152
_symmetry_cell_setting            trigonal
loop_
_symmetry_equiv_pos_as_xyz
  x,y,z
  -y,x-y,z+1/3
  -x+y,-x,z+2/3
  y,x,-z
  x-y,-y,-z+2/3
  -x,-x+y,-z+1/3
_cell_length_a                    4.9130
_cell_length_b                    4.9130
_cell_length_c                    5.4052
_cell_angle_alpha                 90.0000
_cell_angle_beta                  90.0000
_cell_angle_gamma                 120.0000
loop_
_atom_site_label
_atom_site_type_symbol
_atom_site_fract_x
_atom_site_fract_y
_atom_site_fract_z
_atom_site_U_iso_or_equiv
_atom_site_adp_type
_atom_site_occupancy
OX1    O     0.41360   0.26760   0.21410   0.00000  Uiso   1.00
SI1    Si    0.47010  -0.00000   0.33333   0.00000  Uiso   1.00
loop_
_geom_bond_atom_site_label_1
_geom_bond_atom_site_label_2
_geom_bond_distance
_geom_bond_site_symmetry_2
_ccdc_geom_bond_type
OX1    SI1     1.608   .     S
OX1    SI1     1.609   3_664 S
SI1    OX1     1.608   5     S
SI1    OX1     1.609   2_655 S
SI1    OX1     1.609   6_655 S
